
**** 03/04/26 09:04:40 *** PSpice 24.1.0 (4 September 2024) *** ID# 0 ********

 ** Profile: "SCHEMATIC1-dc_gsweep"  [ C:\Users\alkinanl\Desktop\Analog-Comparator-IC-Design\SPICE\Comparator_Design\OrCAD X Capture\


 ****     CIRCUIT DESCRIPTION


******************************************************************************




** Creating circuit file "dc_gsweep.cir" 
** WARNING: THIS AUTOMATICALLY GENERATED FILE MAY BE OVERWRITTEN BY SUBSEQUENT SIMULATIONS

*Libraries: 
* Profile Libraries :
* Local Libraries :
.LIB "../../../orcad_comparator-pspicefiles/orcad_comparator.lib" 
* From [PSPICE NETLIST] section of C:\Users\alkinanl\cdssetup\OrCAD_PSpice\24.1.0\PSpice.ini file:
.lib "nom.lib" 

*Analysis directives: 
.DC LIN V_V1 0 3 0.2 
.OPTIONS ADVCONV
.PROBE64 V(alias(*)) I(alias(*)) W(alias(*)) D(alias(*)) NOISE(alias(*)) 
.INC "..\SCHEMATIC1.net" 



**** INCLUDING SCHEMATIC1.net ****
* source ORCAD_COMPARATOR
M_M1         N00122 N00172 0 0 NMOS_LVL1           
V_V1         N00172 0 0Vdc
V_V2         N00126 0 3Vdc
R_R1         N00122 N00126  1k TC=0,0 

**** RESUMING dc_gsweep.cir ****
.END

INFO(ORPSIM-15423): Unable to find index file orcad_comparator.ind for library file orcad_comparator.lib.

INFO(ORPSIM-15422): Making new index file orcad_comparator.ind for library file orcad_comparator.lib.

Index has 1 entries from 1 file(s).

**** 03/04/26 09:04:40 *** PSpice 24.1.0 (4 September 2024) *** ID# 0 ********

 ** Profile: "SCHEMATIC1-dc_gsweep"  [ C:\Users\alkinanl\Desktop\Analog-Comparator-IC-Design\SPICE\Comparator_Design\OrCAD X Capture\


 ****     MOSFET MODEL PARAMETERS


******************************************************************************




               NMOS_LVL1       
               NMOS            
       LEVEL    1            
           L  100.000000E-06 
           W  100.000000E-06 
          LD   80.000000E-09 
         VTO     .7          
          KP  134.288900E-06 
       GAMMA     .45         
         PHI     .9          
      LAMBDA     .1          
          IS   10.000000E-15 
          JS   10.000000E-09 
          PB     .9          
        PBSW     .9          
          CJ  560.000000E-06 
        CJSW    3.500000E-12 
          MJ     .45         
        MJSW     .2          
        CGSO    0            
        CGDO  400.000000E-12 
        CGBO    0            
        NSUB  900.000000E+12 
         TOX    9.000000E-09 
          XJ    0            
          UO  350            
       UCRIT   10.000000E+03 
      DIOMOD    1            
         VFB    0            
        LETA    0            
        WETA    0            
          U0    0            
        TEMP    0            
         VDD    5            
       XPART    0            



          JOB CONCLUDED

**** 03/04/26 09:04:40 *** PSpice 24.1.0 (4 September 2024) *** ID# 0 ********

 ** Profile: "SCHEMATIC1-dc_gsweep"  [ C:\Users\alkinanl\Desktop\Analog-Comparator-IC-Design\SPICE\Comparator_Design\OrCAD X Capture\


 ****     JOB STATISTICS SUMMARY


******************************************************************************



  Total job time (using Solver 1)   =        1.84
