LTspice 26.0.1 for Windows
Circuit: C:\Users\alkinanl\Desktop\Analog-Comparator-IC-Design\SPICE\Comparator_Design\LTspice\comparator_design.net
Start Time: Wed Mar 11 09:17:34 2026
solver = Normal
Maximum thread count: 20
tnom = 27
temp = 27
method = trap
Model "nmos_lvl1": Oxide thickness thinner than recommended for a level 1 MOSFET.
Instance "M1": Length shorter than recommended for a level 1 MOSFET.
Instance "M1": Width narrower than recommended for a level 1 MOSFET.
Instance "M2": Length shorter than recommended for a level 1 MOSFET.
Instance "M2": Width narrower than recommended for a level 1 MOSFET.
Instance "M3": Length shorter than recommended for a level 1 MOSFET.
Instance "M3": Width narrower than recommended for a level 1 MOSFET.
Instance "M4": Length shorter than recommended for a level 1 MOSFET.
Instance "M4": Width narrower than recommended for a level 1 MOSFET.
Instance "M8": Length shorter than recommended for a level 1 MOSFET.
Instance "M8": Width narrower than recommended for a level 1 MOSFET.
Instance "M9": Length shorter than recommended for a level 1 MOSFET.
Instance "M9": Width narrower than recommended for a level 1 MOSFET.
Model "pmos_lvl1": Oxide thickness thinner than recommended for a level 1 MOSFET.
Instance "M6": Length shorter than recommended for a level 1 MOSFET.
Instance "M6": Width narrower than recommended for a level 1 MOSFET.
Instance "M5": Length shorter than recommended for a level 1 MOSFET.
Instance "M5": Width narrower than recommended for a level 1 MOSFET.
Instance "M7": Length shorter than recommended for a level 1 MOSFET.
Instance "M7": Width narrower than recommended for a level 1 MOSFET.
Instance "M10": Length shorter than recommended for a level 1 MOSFET.
Instance "M10": Width narrower than recommended for a level 1 MOSFET.
Direct Newton iteration succeeded in finding operating point.
Total elapsed time: 0.111 seconds.

Files loaded:
C:\Users\alkinanl\Desktop\Analog-Comparator-IC-Design\SPICE\Comparator_Design\LTspice\comparator_design.net
C:\Users\alkinanl\AppData\Local\LTspice\lib\cmp\standard.mos
C:\Users\alkinanl\Desktop\Analog-Comparator-IC-Design\SPICE\Comparator_Design\LTspice\cmos_models.lib

